10
angle=74.9997  Eenergy=-188.041959468
N      -0.589393     -1.245685     -1.903866
N      -0.005297     -0.290801     -1.459512
C      -0.825392     -0.957633     -3.349989
C      0.108621     0.215707     -0.119307
H      -0.722931     -1.863304     -3.937680
H      -1.854604     -0.625300     -3.419954
H      -0.156727     -0.185269     -3.698220
H      1.141320     0.494101     0.043186
H      -0.489072     1.118299     -0.112164
H      -0.227397     -0.452544     0.672696
