10
angle=34.9997  Eenergy=-188.062906586
N      -0.555801     -1.014979     -1.902217
N      0.118515     -0.074110     -1.546566
C      -0.843370     -0.970967     -3.334378
C      0.121949     0.214362     -0.125295
H      -0.703843     -1.954018     -3.769217
H      -1.892416     -0.713254     -3.425405
H      -0.234367     -0.235295     -3.844201
H      1.139013     0.387177     0.205954
H      -0.428967     1.139924     -0.005020
H      -0.341584     -0.571268     0.461535
