10
angle=179.9654  Eenergy=-188.049460528
N      -0.783406     -0.358412     -2.658961
N      0.112602     0.284861     -3.167305
C      -1.559719     -1.314442     -3.451357
C      0.438543     0.121225     -4.585590
H      -0.931112     -2.112232     -3.834155
H      -2.307584     -1.741892     -2.800364
H      -2.055189     -0.832577     -4.288053
H      0.716298     -0.901900     -4.817564
H      -0.396863     0.404897     -5.217870
H      1.274971     0.768853     -4.801862
