10
angle=64.9997  Eenergy=-188.047733925
N      -0.533404     -1.199137     -1.905419
N      0.084180     -0.248037     -1.492830
C      -0.830376     -0.960038     -3.338977
C      0.110400     0.213833     -0.127860
H      -0.762534     -1.883739     -3.902691
H      -1.859952     -0.623192     -3.367207
H      -0.178153     -0.202562     -3.749385
H      1.125173     0.490657     0.126930
H      -0.494025     1.112368     -0.127992
H      -0.282179     -0.492581     0.600622
