10
angle=79.9997  Eenergy=-188.039595504
N      -0.637816     -1.255061     -1.900991
N      -0.072260     -0.298126     -1.440580
C      -0.823673     -0.957003     -3.356809
C      0.109425     0.217016     -0.113220
H      -0.677413     -1.857515     -3.943368
H      -1.855184     -0.644336     -3.472449
H      -0.154153     -0.170895     -3.668665
H      1.153989     0.478735     -0.010571
H      -0.471175     1.130046     -0.084251
H      -0.192609     -0.435289     0.706095
