10
angle=84.9997  Eenergy=-188.037917059
N      -0.709190     -1.244984     -1.895177
N      -0.153355     -0.289986     -1.421497
C      -0.825118     -0.955275     -3.362834
C      0.113748     0.217349     -0.107253
H      -0.594027     -1.850908     -3.929449
H      -1.861387     -0.697832     -3.552428
H      -0.175381     -0.139016     -3.634240
H      1.172449     0.436052     -0.068641
H      -0.425887     1.153341     -0.045585
H      -0.162722     -0.421171     0.732294
