10
angle=19.9997  Eenergy=-188.067045679
N      -0.613021     -0.934306     -1.900747
N      0.073774     0.002880     -1.556595
C      -0.848151     -0.974625     -3.337175
C      0.126046     0.215929     -0.120640
H      -0.624569     -1.968647     -3.707344
H      -1.906293     -0.795247     -3.491026
H      -0.263091     -0.231173     -3.864241
H      1.161533     0.305353     0.186913
H      -0.360386     1.164483     0.076614
H      -0.366713     -0.577077     0.429431
