10
angle=29.9997  Eenergy=-188.064555577
N      -0.573131     -0.986715     -1.901700
N      0.106430     -0.047392     -1.550807
C      -0.845140     -0.972380     -3.335328
C      0.123595     0.214839     -0.123597
H      -0.680167     -1.960960     -3.748198
H      -1.897757     -0.738037     -3.446760
H      -0.243249     -0.235762     -3.852500
H      1.146362     0.362116     0.202853
H      -0.409020     1.147508     0.022485
H      -0.348796     -0.575645     0.448742
