10
angle=24.9997  Eenergy=-188.065933094
N      -0.592309     -0.959796     -1.901226
N      0.091386     -0.021710     -1.554120
C      -0.846736     -0.973605     -3.336287
C      0.124970     0.215368     -0.122013
H      -0.653656     -1.965884     -3.727598
H      -1.902459     -0.765425     -3.468774
H      -0.252782     -0.234381     -3.859146
H      1.154001     0.334817     0.196429
H      -0.386162     1.155749     0.049848
H      -0.357122     -0.577563     0.438080
