10
angle=44.9997  Eenergy=-188.058784270
N      -0.529003     -1.074982     -1.903383
N      0.131673     -0.130617     -1.534831
C      -0.839471     -0.967606     -3.333067
C      0.118117     0.213614     -0.128534
H      -0.741519     -1.934761     -3.812659
H      -1.880808     -0.671819     -3.387582
H      -0.217492     -0.229114     -3.821778
H      1.126850     0.430913     0.200898
H      -0.460607     1.126963     -0.058343
H      -0.328612     -0.555021     0.494469
