10
angle=39.9997  Eenergy=-188.060982318
N      -0.540894     -1.044452     -1.902768
N      0.127172     -0.101893     -1.541291
C      -0.841479     -0.969366     -3.333570
C      0.120109     0.213948     -0.126993
H      -0.724418     -1.945220     -3.790687
H      -1.886690     -0.691147     -3.405406
H      -0.225860     -0.233043     -3.834002
H      1.132366     0.410127     0.205453
H      -0.446142     1.133043     -0.032205
H      -0.335033     -0.564425     0.476660
