10
angle=49.9997  Eenergy=-188.056323042
N      -0.521023     -1.106295     -1.904029
N      0.131103     -0.160132     -1.526999
C      -0.837361     -0.965718     -3.333076
C      0.116056     0.213392     -0.129695
H      -0.754740     -1.922917     -3.835091
H      -1.874978     -0.655226     -3.373093
H      -0.208853     -0.223773     -3.807330
H      1.122918     0.449618     0.191682
H      -0.472590     1.121690     -0.082529
H      -0.321404     -0.543070     0.515352
